/*--------------------------------*- C++ -*----------------------------------*\
| =========                 |                                                 |
| \\      /  F ield         | OpenFOAM: The Open Source CFD Toolbox           |
|  \\    /   O peration     | Version:  v2506                                 |
|   \\  /    A nd           | Website:  www.openfoam.com                      |
|    \\/     M anipulation  |                                                 |
\*---------------------------------------------------------------------------*/
FoamFile
{
    version     2.0;
    format      ascii;
    class       dictionary;
    location    "constant";
    object      LaserProperties;
}
// * * * * * * * * * * * * * * * * * * * * * * * * * * * * * * * * * * * * * //

timeVsLaserPosition
{
    file        "$FOAM_CASE/constant/timeVsLaserPosition";
    outOfBounds clamp;
}

timeVsLaserPower
{
    file        "$FOAM_CASE/constant/timeVsLaserPower";
    outOfBounds clamp;
}

laserModel          goldak;
absorptivity        0.50;
goldakA             60e-6;
goldakB             45e-6;
goldakC1            20e-6;
goldakC2            55e-6;
goldakFrontFraction 0.6;
goldakRearFraction  1.4;
scanDirection       (0 1 0);
substrateProbeDepth 50e-6;

// ************************************************************************* //
