/*--------------------------------*- C++ -*----------------------------------*\
| =========                 |                                                 |
| \\      /  F ield         | OpenFOAM: The Open Source CFD Toolbox           |
|  \\    /   O peration     | Version:  v2506                                 |
|   \\  /    A nd           | Website:  www.openfoam.com                      |
|    \\/     M anipulation  |                                                 |
\*---------------------------------------------------------------------------*/
FoamFile
{
    version     2.0;
    format      ascii;
    class       dictionary;
    location    "constant";
    object      LaserProperties;
}
// * * * * * * * * * * * * * * * * * * * * * * * * * * * * * * * * * * * * * //

timeVsLaserPosition
{
    file        "$FOAM_CASE/constant/timeVsLaserPosition";
    outOfBounds clamp;
}

timeVsLaserPower
{
    file        "$FOAM_CASE/constant/timeVsLaserPower";
    outOfBounds clamp;
}

laserModel          cylindricalExponential;
laserRadius         45e-6;
absorptivity        0.50;
absorptionDepth     30e-6;
cylindricalHeight   75e-6;
substrateProbeDepth 75e-6;

// ************************************************************************* //
