/*--------------------------------*- C++ -*----------------------------------*\
| =========                 |                                                 |
| \\      /  F ield         | OpenFOAM: The Open Source CFD Toolbox           |
|  \\    /   O peration     | Version:  2506                                  |
|   \\  /    A nd           | Website:  www.openfoam.com                      |
|    \\/     M anipulation  |                                                 |
\*---------------------------------------------------------------------------*/
FoamFile
{
    version     2.0;
    format      ascii;
    arch        "LSB;label=32;scalar=64";
    class       polyBoundaryMesh;
    location    "constant/polyMesh";
    object      boundary;
}
// * * * * * * * * * * * * * * * * * * * * * * * * * * * * * * * * * * * * * //

6
(
    back
    {
        type            wall;
        inGroups        1(wall);
        nFaces          1600;
        startFace       92400;
    }
    front
    {
        type            wall;
        inGroups        1(wall);
        nFaces          1600;
        startFace       94000;
    }
    leftWall
    {
        type            wall;
        inGroups        1(wall);
        nFaces          400;
        startFace       95600;
    }
    rightWall
    {
        type            patch;
        nFaces          400;
        startFace       96000;
    }
    topWall
    {
        type            patch;
        nFaces          1600;
        startFace       96400;
    }
    bottomWall
    {
        type            patch;
        nFaces          1600;
        startFace       98000;
    }
)

// ************************************************************************* //
