/*--------------------------------*- C++ -*----------------------------------*\
  =========                 |
  \\      /  F ield         | OpenFOAM: The Open Source CFD Toolbox
   \\    /   O peration     | Website:  https://openfoam.org
    \\  /    A nd           | Version:  6
     \\/     M anipulation  |
\*---------------------------------------------------------------------------*/
FoamFile
{
    version     2.0;
    format      ascii;
    class       dictionary;
    location    "constant";
    object      PhaseFieldProperties;
}
// * * * * * * * * * * * * * * * * * * * * * * * * * * * * * * * * * * * * * //

timeVsLaserPosition
{
    file    "$FOAM_CASE/constant/timeVsLaserPosition";
    outOfBounds clamp;
}

timeVsLaserPower
{
    file    "$FOAM_CASE/constant/timeVsLaserPower";
    outOfBounds clamp;
}

// Laser angle (normalised in the code)
V_incident (0 1 0);

laserRadius 25e-6;
absorptionDepth 30e-6;
absorptivity 0.4;
